*Heading
** Job name: HOLE_FakeJobToCreateMesh-Copy Model name: Model-1
** Generated by: Abaqus/CAE 6.14-1
*Preprint, echo=NO, model=NO, history=NO, contact=NO
**
** PARTS
**
*Part, name=Part-1
*Node
      1,       0.0115, 0.00039999999
      2, 0.0110952379, 0.00039999999
      3, 0.0106904758, 0.00039999999
      4, 0.0102857146, 0.00039999999
      5, 0.00988095254, 0.00039999999
      6, 0.00947619043, 0.00039999999
      7, 0.00907142833, 0.00039999999
      8, 0.00866666622, 0.00039999999
      9, 0.00826190505, 0.00039999999
     10, 0.00785714295, 0.00039999999
     11, 0.00745238084, 0.00039999999
     12, 0.0070476192, 0.00039999999
     13, 0.0066428571, 0.00039999999
     14, 0.00623809546, 0.00039999999
     15, 0.00583333336, 0.00039999999
     16, 0.00542857125, 0.00039999999
     17, 0.00502380962, 0.00039999999
     18, 0.00461904751, 0.00039999999
     19, 0.00421428587, 0.00039999999
     20, 0.00380952377, 0.00039999999
** ... 24 like lines cut
*Element, type=CAX4
 1,  1,  2, 24, 23
 2,  2,  3, 25, 24
 3,  3,  4, 26, 25
 4,  4,  5, 27, 26
 5,  5,  6, 28, 27
 6,  6,  7, 29, 28
 7,  7,  8, 30, 29
 8,  8,  9, 31, 30
 9,  9, 10, 32, 31
10, 10, 11, 33, 32
11, 11, 12, 34, 33
12, 12, 13, 35, 34
13, 13, 14, 36, 35
14, 14, 15, 37, 36
15, 15, 16, 38, 37
16, 16, 17, 39, 38
17, 17, 18, 40, 39
18, 18, 19, 41, 40
19, 19, 20, 42, 41
20, 20, 21, 43, 42
21, 21, 22, 44, 43
*Nset, nset=Set-1, generate
  1,  44,   1
*Elset, elset=Set-1, generate
  1,  21,   1
** Section: Section-1
*Solid Section, elset=Set-1, material=Material-1
1.,
*End Part
**  
**
** ASSEMBLY
**
*Assembly, name=Assembly
**  
*Instance, name=Part-1-1, part=Part-1
*End Instance
**  
*End Assembly
** 
** MATERIALS
** 
*Material, name=Material-1
*Elastic
 1e+06, 0.3
** ----------------------------------------------------------------
** 
** STEP: Step-1
** 
*Step, name=Step-1, nlgeom=NO
*Static
1., 1., 1e-05, 1.
** 
** OUTPUT REQUESTS
** 
*Restart, write, frequency=0
** 
** FIELD OUTPUT: F-Output-1
** 
*Output, field, variable=PRESELECT
** 
** HISTORY OUTPUT: H-Output-1
** 
*Output, history, variable=PRESELECT
*End Step
