*Heading
** Job name: FakeJobToCreateMesh Model name: Model-1
** Generated by: Abaqus/CAE 6.14-1
*Preprint, echo=NO, model=NO, history=NO, contact=NO
**
** PARTS
**
*Part, name=Part-1
*Node
      1,           0.,           0.
      2, 0.00039655171,           0.
      3, 0.00079310342,           0.
      4, 0.00118965516,           0.
      5, 0.00158620684,           0.
      6, 0.00198275852,           0.
      7, 0.00237931032,           0.
      8, 0.00277586211,           0.
      9, 0.00317241368,           0.
     10, 0.00356896548,           0.
     11, 0.00396551704,           0.
     12, 0.00436206907,           0.
     13, 0.00475862063,           0.
     14, 0.0051551722,           0.
     15, 0.00555172423,           0.
     16, 0.00594827579,           0.
     17, 0.00634482736,           0.
     18, 0.00674137939,           0.
     19, 0.00713793095,           0.
     20, 0.00753448298,           0.
** ... 40 like lines cut
*Element, type=CAX4
 1,  1,  2, 32, 31
 2,  2,  3, 33, 32
 3,  3,  4, 34, 33
 4,  4,  5, 35, 34
 5,  5,  6, 36, 35
 6,  6,  7, 37, 36
 7,  7,  8, 38, 37
 8,  8,  9, 39, 38
 9,  9, 10, 40, 39
10, 10, 11, 41, 40
11, 11, 12, 42, 41
12, 12, 13, 43, 42
13, 13, 14, 44, 43
14, 14, 15, 45, 44
15, 15, 16, 46, 45
16, 16, 17, 47, 46
17, 17, 18, 48, 47
18, 18, 19, 49, 48
19, 19, 20, 50, 49
20, 20, 21, 51, 50
** ... 9 like lines cut
*Nset, nset=Set-4, generate
  1,  60,   1
*Elset, elset=Set-4, generate
  1,  29,   1
** Section: Section-1
*Solid Section, elset=Set-4, material=Material-1
1.,
*End Part
**  
**
** ASSEMBLY
**
*Assembly, name=Assembly
**  
*Instance, name=Part-1-1, part=Part-1
*End Instance
**  
*End Assembly
** 
** MATERIALS
** 
*Material, name=Material-1
*Elastic
 1e+06, 0.3
** ----------------------------------------------------------------
** 
** STEP: Step-1
** 
*Step, name=Step-1, nlgeom=NO
*Static
1., 1., 1e-05, 1.
** 
** OUTPUT REQUESTS
** 
*Restart, write, frequency=0
** 
** FIELD OUTPUT: F-Output-1
** 
*Output, field, variable=PRESELECT
** 
** HISTORY OUTPUT: H-Output-1
** 
*Output, history, variable=PRESELECT
*End Step
